L24/1726528/GD.dss
! GERACAO DISTRIBUIDA — gerada de UGBT_tab e UGMT_tab
! Unidades com potencia nula sao omitidas (gerariam NaN).
! 101 unidades descartadas por potencia nula.
! 528 unidades de BT realocadas para o secundario do transformador (rede secundaria nao modelada).
! 0 unidades descartadas por ponto de conexao ausente da rede.
! irradiance=1 — ver o docstring: 1,0 e meio-dia de ceu claro, nao a ponta de carga.
! 2 barras tiveram a GD limitada a capacidade do transformador (1 kW cortados).
! inversores em pf=1 — ver o docstring de _pv: 0,92 e capacidade exigida pelo PRODIST, nao despacho.
! 0 unidades de MT ligadas pelo PAC da carga (casadas por CEG_GD): o PAC da UGMT nao existe na SSDMT.
New PVSystem.GD_ff4d0cdd3fc7ed99d47559a5801de09b77103554fdd1e390d9e5c22a6253ccc4 phases=3 bus1=node_121785521.1.2.3 conn=wye kv=13.8000 pf=1 pmpp=18.31 kva=18.31 irradiance=1 temperature=25 %cutin=20 %cutout=20 effcurve=MyEff P-TCurve=MyPvsT Daily=IRRAD_DIA TDaily=TEMP_DIA
New PVSystem.GD_5a67c68e8a073dd077b3fed3dd8aa4fa29d0700b297db765b12017e1aac8d63b phases=3 bus1=node_109623003.1.2.3 conn=wye kv=13.8000 pf=1 pmpp=36.99 kva=36.99 irradiance=1 temperature=25 %cutin=20 %cutout=20 effcurve=MyEff P-TCurve=MyPvsT Daily=IRRAD_DIA TDaily=TEMP_DIA
New PVSystem.GD_d9a0e32ba185a39f44c7ee93a0362f70c4e0524756a1242a3c213ae792348713 phases=3 bus1=node_109759047.1.2.3 conn=wye kv=13.8000 pf=1 pmpp=42.59 kva=42.59 irradiance=1 temperature=25 %cutin=20 %cutout=20 effcurve=MyEff P-TCurve=MyPvsT Daily=IRRAD_DIA TDaily=TEMP_DIA
New PVSystem.GD_40dd4005cd69fff2115ab3675ea323fbb5cca47126567867a8367ba38aa9ed3a phases=3 bus1=node_120033946.1.2.3 conn=wye kv=13.8000 pf=1 pmpp=49.32 kva=49.32 irradiance=1 temperature=25 %cutin=20 %cutout=20 effcurve=MyEff P-TCurve=MyPvsT Daily=IRRAD_DIA TDaily=TEMP_DIA
New PVSystem.GD_6fd1058710b377c7f981d6bb395d422ee771dba89956c6d1ead145d4babe6886 phases=3 bus1=node_121945554.1.2.3 conn=wye kv=13.8000 pf=1 pmpp=10.46 kva=10.46 irradiance=1 temperature=25 %cutin=20 %cutout=20 effcurve=MyEff P-TCurve=MyPvsT Daily=IRRAD_DIA TDaily=TEMP_DIA
New PVSystem.GD_58544052c69e40f7a73ffc27e15b7ee7c6b80db2920e8c1f8c2327504f46e425 phases=3 bus1=node_109760167.1.2.3 conn=wye kv=13.8000 pf=1 pmpp=49.32 kva=49.32 irradiance=1 temperature=25 %cutin=20 %cutout=20 effcurve=MyEff P-TCurve=MyPvsT Daily=IRRAD_DIA TDaily=TEMP_DIA
New PVSystem.GD_b5aa0e684f711b3f22f4ea6348489d512a5b33274f233b95388ae455352c90ce phases=3 bus1=node_120635375.1.2.3 conn=wye kv=13.8000 pf=1 pmpp=268.25 kva=268.25 irradiance=1 temperature=25 %cutin=20 %cutout=20 effcurve=MyEff P-TCurve=MyPvsT Daily=IRRAD_DIA TDaily=TEMP_DIA
New PVSystem.GD_3944c95f0b17067cc75e2cce61629dce78a9d0929498e075f129e977114a7ac1 phases=3 bus1=node_1226113119.1.2.3 conn=wye kv=13.8000 pf=1 pmpp=28.17 kva=28.17 irradiance=1 temperature=25 %cutin=20 %cutout=20 effcurve=MyEff P-TCurve=MyPvsT Daily=IRRAD_DIA TDaily=TEMP_DIA
New PVSystem.GD_da6f22bb2e35b4e012bcb516efbdfc6ad90efa3ce71aa60a12800d550614d099 phases=3 bus1=node_2755683641.1.2.3 conn=wye kv=13.8000 pf=1 pmpp=5.37 kva=5.37 irradiance=1 temperature=25 %cutin=20 %cutout=20 effcurve=MyEff P-TCurve=MyPvsT Daily=IRRAD_DIA TDaily=TEMP_DIA
New PVSystem.GD_86af8b7bb4343a3375a109e646c60be465caa7b859b0a3ec950106582ec8fb81_1 phases=1 bus1=node_423775718.1.4 conn=wye kv=0.1270 pf=1 pmpp=0.51 kva=0.51 irradiance=1 temperature=25 %cutin=20 %cutout=20 effcurve=MyEff P-TCurve=MyPvsT Daily=IRRAD_DIA TDaily=TEMP_DIA
New PVSystem.GD_86af8b7bb4343a3375a109e646c60be465caa7b859b0a3ec950106582ec8fb81_2 phases=1 bus1=node_423775718.2.4 conn=wye kv=0.1270 pf=1 pmpp=0.51 kva=0.51 irradiance=1 temperature=25 %cutin=20 %cutout=20 effcurve=MyEff P-TCurve=MyPvsT Daily=IRRAD_DIA TDaily=TEMP_DIA
New PVSystem.GD_86af8b7bb4343a3375a109e646c60be465caa7b859b0a3ec950106582ec8fb81_3 phases=1 bus1=node_423775718.3.4 conn=wye kv=0.1270 pf=1 pmpp=0.51 kva=0.51 irradiance=1 temperature=25 %cutin=20 %cutout=20 effcurve=MyEff P-TCurve=MyPvsT Daily=IRRAD_DIA TDaily=TEMP_DIA
New PVSystem.GD_4283b5074ac11b686b90d791e360cdc9a39977a8b449c9e66c5a61dc79dafa4c_1 phases=1 bus1=node_423762926.1.4 conn=wye kv=0.1200 pf=1 pmpp=0.62 kva=0.62 irradiance=1 temperature=25 %cutin=20 %cutout=20 effcurve=MyEff P-TCurve=MyPvsT Daily=IRRAD_DIA TDaily=TEMP_DIA
New PVSystem.GD_4283b5074ac11b686b90d791e360cdc9a39977a8b449c9e66c5a61dc79dafa4c_2 phases=1 bus1=node_423762926.2.4 conn=wye kv=0.1200 pf=1 pmpp=0.62 kva=0.62 irradiance=1 temperature=25 %cutin=20 %cutout=20 effcurve=MyEff P-TCurve=MyPvsT Daily=IRRAD_DIA TDaily=TEMP_DIA
New PVSystem.GD_02ca87aa6631cafca0af946ba70ccbcba46bad0ea7bee0681f7482a5893d7aa1_1 phases=1 bus1=node_423776480.1.4 conn=wye kv=0.1270 pf=1 pmpp=1.00 kva=1.00 irradiance=1 temperature=25 %cutin=20 %cutout=20 effcurve=MyEff P-TCurve=MyPvsT Daily=IRRAD_DIA TDaily=TEMP_DIA
New PVSystem.GD_02ca87aa6631cafca0af946ba70ccbcba46bad0ea7bee0681f7482a5893d7aa1_2 phases=1 bus1=node_423776480.2.4 conn=wye kv=0.1270 pf=1 pmpp=1.00 kva=1.00 irradiance=1 temperature=25 %cutin=20 %cutout=20 effcurve=MyEff P-TCurve=MyPvsT Daily=IRRAD_DIA TDaily=TEMP_DIA
New PVSystem.GD_02ca87aa6631cafca0af946ba70ccbcba46bad0ea7bee0681f7482a5893d7aa1_3 phases=1 bus1=node_423776480.3.4 conn=wye kv=0.1270 pf=1 pmpp=1.00 kva=1.00 irradiance=1 temperature=25 %cutin=20 %cutout=20 effcurve=MyEff P-TCurve=MyPvsT Daily=IRRAD_DIA TDaily=TEMP_DIA
New PVSystem.GD_00ce31a986cedd01e7f11b8de3341ce40fd3211e49e893cb85aba878ae51f894_1 phases=1 bus1=node_423776480.1.4 conn=wye kv=0.1270 pf=1 pmpp=0.21 kva=0.21 irradiance=1 temperature=25 %cutin=20 %cutout=20 effcurve=MyEff P-TCurve=MyPvsT Daily=IRRAD_DIA TDaily=TEMP_DIA
New PVSystem.GD_00ce31a986cedd01e7f11b8de3341ce40fd3211e49e893cb85aba878ae51f894_2 phases=1 bus1=node_423776480.2.4 conn=wye kv=0.1270 pf=1 pmpp=0.21 kva=0.21 irradiance=1 temperature=25 %cutin=20 %cutout=20 effcurve=MyEff P-TCurve=MyPvsT Daily=IRRAD_DIA TDaily=TEMP_DIA
New PVSystem.GD_00ce31a986cedd01e7f11b8de3341ce40fd3211e49e893cb85aba878ae51f894_3 phases=1 bus1=node_423776480.3.4 conn=wye kv=0.1270 pf=1 pmpp=0.21 kva=0.21 irradiance=1 temperature=25 %cutin=20 %cutout=20 effcurve=MyEff P-TCurve=MyPvsT Daily=IRRAD_DIA TDaily=TEMP_DIA
New PVSystem.GD_976a5ab61100878e5e095701f682536b86169b28a700ea9df4e071d62c933b3a_1 phases=1 bus1=node_423776480.1.4 conn=wye kv=0.1270 pf=1 pmpp=3.78 kva=3.78 irradiance=1 temperature=25 %cutin=20 %cutout=20 effcurve=MyEff P-TCurve=MyPvsT Daily=IRRAD_DIA TDaily=TEMP_DIA
New PVSystem.GD_976a5ab61100878e5e095701f682536b86169b28a700ea9df4e071d62c933b3a_2 phases=1 bus1=node_423776480.2.4 conn=wye kv=0.1270 pf=1 pmpp=3.78 kva=3.78 irradiance=1 temperature=25 %cutin=20 %cutout=20 effcurve=MyEff P-TCurve=MyPvsT Daily=IRRAD_DIA TDaily=TEMP_DIA
New PVSystem.GD_976a5ab61100878e5e095701f682536b86169b28a700ea9df4e071d62c933b3a_3 phases=1 bus1=node_423776480.3.4 conn=wye kv=0.1270 pf=1 pmpp=3.78 kva=3.78 irradiance=1 temperature=25 %cutin=20 %cutout=20 effcurve=MyEff P-TCurve=MyPvsT Daily=IRRAD_DIA TDaily=TEMP_DIA
New PVSystem.GD_bfdd739d94acd278a6495a686b54364853efd067564d97da9104d032c292e41d_1 phases=1 bus1=node_423774062.1.4 conn=wye kv=0.1270 pf=1 pmpp=0.39 kva=0.39 irradiance=1 temperature=25 %cutin=20 %cutout=20 effcurve=MyEff P-TCurve=MyPvsT Daily=IRRAD_DIA TDaily=TEMP_DIA
New PVSystem.GD_bfdd739d94acd278a6495a686b54364853efd067564d97da9104d032c292e41d_2 phases=1 bus1=node_423774062.2.4 conn=wye kv=0.1270 pf=1 pmpp=0.39 kva=0.39 irradiance=1 temperature=25 %cutin=20 %cutout=20 effcurve=MyEff P-TCurve=MyPvsT Daily=IRRAD_DIA TDaily=TEMP_DIA
New PVSystem.GD_bfdd739d94acd278a6495a686b54364853efd067564d97da9104d032c292e41d_3 phases=1 bus1=node_423774062.3.4 conn=wye kv=0.1270 pf=1 pmpp=0.39 kva=0.39 irradiance=1 temperature=25 %cutin=20 %cutout=20 effcurve=MyEff P-TCurve=MyPvsT Daily=IRRAD_DIA TDaily=TEMP_DIA
New PVSystem.GD_92eb81390b33e5f4e379040f526d5cf5e684e0988583df1e4c44b95aefdb9231_1 phases=1 bus1=node_423774062.1.4 conn=wye kv=0.1270 pf=1 pmpp=3.05 kva=3.05 irradiance=1 temperature=25 %cutin=20 %cutout=20 effcurve=MyEff P-TCurve=MyPvsT Daily=IRRAD_DIA TDaily=TEMP_DIA
New PVSystem.GD_92eb81390b33e5f4e379040f526d5cf5e684e0988583df1e4c44b95aefdb9231_2 phases=1 bus1=node_423774062.2.4 conn=wye kv=0.1270 pf=1 pmpp=3.05 kva=3.05 irradiance=1 temperature=25 %cutin=20 %cutout=20 effcurve=MyEff P-TCurve=MyPvsT Daily=IRRAD_DIA TDaily=TEMP_DIA
New PVSystem.GD_92eb81390b33e5f4e379040f526d5cf5e684e0988583df1e4c44b95aefdb9231_3 phases=1 bus1=node_423774062.3.4 conn=wye kv=0.1270 pf=1 pmpp=3.05 kva=3.05 irradiance=1 temperature=25 %cutin=20 %cutout=20 effcurve=MyEff P-TCurve=MyPvsT Daily=IRRAD_DIA TDaily=TEMP_DIA
New PVSystem.GD_1d2fefca390807c6426ba185e28b45b3c42a90023c72af83347adc3e7424bdae_1 phases=1 bus1=node_423774062.1.4 conn=wye kv=0.1270 pf=1 pmpp=0.28 kva=0.28 irradiance=1 temperature=25 %cutin=20 %cutout=20 effcurve=MyEff P-TCurve=MyPvsT Daily=IRRAD_DIA TDaily=TEMP_DIA
New PVSystem.GD_1d2fefca390807c6426ba185e28b45b3c42a90023c72af83347adc3e7424bdae_2 phases=1 bus1=node_423774062.2.4 conn=wye kv=0.1270 pf=1 pmpp=0.28 kva=0.28 irradiance=1 temperature=25 %cutin=20 %cutout=20 effcurve=MyEff P-TCurve=MyPvsT Daily=IRRAD_DIA TDaily=TEMP_DIA
New PVSystem.GD_1d2fefca390807c6426ba185e28b45b3c42a90023c72af83347adc3e7424bdae_3 phases=1 bus1=node_423774062.3.4 conn=wye kv=0.1270 pf=1 pmpp=0.28 kva=0.28 irradiance=1 temperature=25 %cutin=20 %cutout=20 effcurve=MyEff P-TCurve=MyPvsT Daily=IRRAD_DIA TDaily=TEMP_DIA
New PVSystem.GD_6903cd83da485607cce4545cca04be3ae2d8894d26eccbc763a6b4c73b8bc3dc_1 phases=1 bus1=node_423774062.1.4 conn=wye kv=0.1270 pf=1 pmpp=0.74 kva=0.74 irradiance=1 temperature=25 %cutin=20 %cutout=20 effcurve=MyEff P-TCurve=MyPvsT Daily=IRRAD_DIA TDaily=TEMP_DIA
New PVSystem.GD_6903cd83da485607cce4545cca04be3ae2d8894d26eccbc763a6b4c73b8bc3dc_2 phases=1 bus1=node_423774062.2.4 conn=wye kv=0.1270 pf=1 pmpp=0.74 kva=0.74 irradiance=1 temperature=25 %cutin=20 %cutout=20 effcurve=MyEff P-TCurve=MyPvsT Daily=IRRAD_DIA TDaily=TEMP_DIA
New PVSystem.GD_6903cd83da485607cce4545cca04be3ae2d8894d26eccbc763a6b4c73b8bc3dc_3 phases=1 bus1=node_423774062.3.4 conn=wye kv=0.1270 pf=1 pmpp=0.74 kva=0.74 irradiance=1 temperature=25 %cutin=20 %cutout=20 effcurve=MyEff P-TCurve=MyPvsT Daily=IRRAD_DIA TDaily=TEMP_DIA
New PVSystem.GD_12c8bef2418cdf6b1da63b6ab542310b428c4208b1598242d608578c7f35ac1d_1 phases=1 bus1=node_423774062.1.4 conn=wye kv=0.1270 pf=1 pmpp=0.54 kva=0.54 irradiance=1 temperature=25 %cutin=20 %cutout=20 effcurve=MyEff P-TCurve=MyPvsT Daily=IRRAD_DIA TDaily=TEMP_DIA
New PVSystem.GD_12c8bef2418cdf6b1da63b6ab542310b428c4208b1598242d608578c7f35ac1d_2 phases=1 bus1=node_423774062.2.4 conn=wye kv=0.1270 pf=1 pmpp=0.54 kva=0.54 irradiance=1 temperature=25 %cutin=20 %cutout=20 effcurve=MyEff P-TCurve=MyPvsT Daily=IRRAD_DIA TDaily=TEMP_DIA
New PVSystem.GD_12c8bef2418cdf6b1da63b6ab542310b428c4208b1598242d608578c7f35ac1d_3 phases=1 bus1=node_423774062.3.4 conn=wye kv=0.1270 pf=1 pmpp=0.54 kva=0.54 irradiance=1 temperature=25 %cutin=20 %cutout=20 effcurve=MyEff P-TCurve=MyPvsT Daily=IRRAD_DIA TDaily=TEMP_DIA
New PVSystem.GD_e0f7e341fec59ba2cefbfe75f6cd8c554af1a1252e150ea89eec39dc044bef35_1 phases=1 bus1=node_423774062.1.4 conn=wye kv=0.1270 pf=1 pmpp=1.39 kva=1.39 irradiance=1 temperature=25 %cutin=20 %cutout=20 effcurve=MyEff P-TCurve=MyPvsT Daily=IRRAD_DIA TDaily=TEMP_DIA
New PVSystem.GD_e0f7e341fec59ba2cefbfe75f6cd8c554af1a1252e150ea89eec39dc044bef35_2 phases=1 bus1=node_423774062.2.4 conn=wye kv=0.1270 pf=1 pmpp=1.39 kva=1.39 irradiance=1 temperature=25 %cutin=20 %cutout=20 effcurve=MyEff P-TCurve=MyPvsT Daily=IRRAD_DIA TDaily=TEMP_DIA
New PVSystem.GD_e0f7e341fec59ba2cefbfe75f6cd8c554af1a1252e150ea89eec39dc044bef35_3 phases=1 bus1=node_423774062.3.4 conn=wye kv=0.1270 pf=1 pmpp=1.39 kva=1.39 irradiance=1 temperature=25 %cutin=20 %cutout=20 effcurve=MyEff P-TCurve=MyPvsT Daily=IRRAD_DIA TDaily=TEMP_DIA
New PVSystem.GD_89af06bba57868f52e30a1513e284eadbfe88dab497efefd28f1d90b31f28f8c_1 phases=1 bus1=node_423774062.1.4 conn=wye kv=0.1270 pf=1 pmpp=0.75 kva=0.75 irradiance=1 temperature=25 %cutin=20 %cutout=20 effcurve=MyEff P-TCurve=MyPvsT Daily=IRRAD_DIA TDaily=TEMP_DIA
New PVSystem.GD_89af06bba57868f52e30a1513e284eadbfe88dab497efefd28f1d90b31f28f8c_2 phases=1 bus1=node_423774062.2.4 conn=wye kv=0.1270 pf=1 pmpp=0.75 kva=0.75 irradiance=1 temperature=25 %cutin=20 %cutout=20 effcurve=MyEff P-TCurve=MyPvsT Daily=IRRAD_DIA TDaily=TEMP_DIA
New PVSystem.GD_89af06bba57868f52e30a1513e284eadbfe88dab497efefd28f1d90b31f28f8c_3 phases=1 bus1=node_423774062.3.4 conn=wye kv=0.1270 pf=1 pmpp=0.75 kva=0.75 irradiance=1 temperature=25 %cutin=20 %cutout=20 effcurve=MyEff P-TCurve=MyPvsT Daily=IRRAD_DIA TDaily=TEMP_DIA
New PVSystem.GD_5ea4e85fd9ec71a0bf01b5b0bdea1541237d8593999673949c3a809faa3c06fd_1 phases=1 bus1=node_423774068.1.4 conn=wye kv=0.1270 pf=1 pmpp=0.11 kva=0.11 irradiance=1 temperature=25 %cutin=20 %cutout=20 effcurve=MyEff P-TCurve=MyPvsT Daily=IRRAD_DIA TDaily=TEMP_DIA
New PVSystem.GD_5ea4e85fd9ec71a0bf01b5b0bdea1541237d8593999673949c3a809faa3c06fd_2 phases=1 bus1=node_423774068.2.4 conn=wye kv=0.1270 pf=1 pmpp=0.11 kva=0.11 irradiance=1 temperature=25 %cutin=20 %cutout=20 effcurve=MyEff P-TCurve=MyPvsT Daily=IRRAD_DIA TDaily=TEMP_DIA
New PVSystem.GD_5ea4e85fd9ec71a0bf01b5b0bdea1541237d8593999673949c3a809faa3c06fd_3 phases=1 bus1=node_423774068.3.4 conn=wye kv=0.1270 pf=1 pmpp=0.11 kva=0.11 irradiance=1 temperature=25 %cutin=20 %cutout=20 effcurve=MyEff P-TCurve=MyPvsT Daily=IRRAD_DIA TDaily=TEMP_DIA
New PVSystem.GD_617c9bdf41e1bddea27e96323c84c2f8c0bd2d03281df44a61e9e1a7cf457a0a_1 phases=1 bus1=node_423772385.1.4 conn=wye kv=0.1270 pf=1 pmpp=0.86 kva=0.86 irradiance=1 temperature=25 %cutin=20 %cutout=20 effcurve=MyEff P-TCurve=MyPvsT Daily=IRRAD_DIA TDaily=TEMP_DIA
New PVSystem.GD_617c9bdf41e1bddea27e96323c84c2f8c0bd2d03281df44a61e9e1a7cf457a0a_2 phases=1 bus1=node_423772385.2.4 conn=wye kv=0.1270 pf=1 pmpp=0.86 kva=0.86 irradiance=1 temperature=25 %cutin=20 %cutout=20 effcurve=MyEff P-TCurve=MyPvsT Daily=IRRAD_DIA TDaily=TEMP_DIA
New PVSystem.GD_617c9bdf41e1bddea27e96323c84c2f8c0bd2d03281df44a61e9e1a7cf457a0a_3 phases=1 bus1=node_423772385.3.4 conn=wye kv=0.1270 pf=1 pmpp=0.86 kva=0.86 irradiance=1 temperature=25 %cutin=20 %cutout=20 effcurve=MyEff P-TCurve=MyPvsT Daily=IRRAD_DIA TDaily=TEMP_DIA
New PVSystem.GD_34bc50c326b7a1bfdd73acc14f21e6e97d4183b72c742d65a556331429c1a511_1 phases=1 bus1=node_411359875.1.4 conn=wye kv=0.1270 pf=1 pmpp=2.95 kva=2.95 irradiance=1 temperature=25 %cutin=20 %cutout=20 effcurve=MyEff P-TCurve=MyPvsT Daily=IRRAD_DIA TDaily=TEMP_DIA
New PVSystem.GD_34bc50c326b7a1bfdd73acc14f21e6e97d4183b72c742d65a556331429c1a511_2 phases=1 bus1=node_411359875.2.4 conn=wye kv=0.1270 pf=1 pmpp=2.95 kva=2.95 irradiance=1 temperature=25 %cutin=20 %cutout=20 effcurve=MyEff P-TCurve=MyPvsT Daily=IRRAD_DIA TDaily=TEMP_DIA
New PVSystem.GD_34bc50c326b7a1bfdd73acc14f21e6e97d4183b72c742d65a556331429c1a511_3 phases=1 bus1=node_411359875.3.4 conn=wye kv=0.1270 pf=1 pmpp=2.95 kva=2.95 irradiance=1 temperature=25 %cutin=20 %cutout=20 effcurve=MyEff P-TCurve=MyPvsT Daily=IRRAD_DIA TDaily=TEMP_DIA
New PVSystem.GD_81ed95c7cd4788e0ed2b54bcf5e9df8a724b7d7618e6eb580fb31afdc2dcdbea_1 phases=1 bus1=node_423775310.1.4 conn=wye kv=0.1270 pf=1 pmpp=2.06 kva=2.06 irradiance=1 temperature=25 %cutin=20 %cutout=20 effcurve=MyEff P-TCurve=MyPvsT Daily=IRRAD_DIA TDaily=TEMP_DIA
New PVSystem.GD_81ed95c7cd4788e0ed2b54bcf5e9df8a724b7d7618e6eb580fb31afdc2dcdbea_2 phases=1 bus1=node_423775310.2.4 conn=wye kv=0.1270 pf=1 pmpp=2.06 kva=2.06 irradiance=1 temperature=25 %cutin=20 %cutout=20 effcurve=MyEff P-TCurve=MyPvsT Daily=IRRAD_DIA TDaily=TEMP_DIA
New PVSystem.GD_81ed95c7cd4788e0ed2b54bcf5e9df8a724b7d7618e6eb580fb31afdc2dcdbea_3 phases=1 bus1=node_423775310.3.4 conn=wye kv=0.1270 pf=1 pmpp=2.06 kva=2.06 irradiance=1 temperature=25 %cutin=20 %cutout=20 effcurve=MyEff P-TCurve=MyPvsT Daily=IRRAD_DIA TDaily=TEMP_DIA
New PVSystem.GD_60d6cfd4cf9e67a7f16a35bf81c3e88a1242d2d415eec0fbdf72e056fcb2b77a_1 phases=1 bus1=node_423776768.1.4 conn=wye kv=0.1270 pf=1 pmpp=12.39 kva=12.39 irradiance=1 temperature=25 %cutin=20 %cutout=20 effcurve=MyEff P-TCurve=MyPvsT Daily=IRRAD_DIA TDaily=TEMP_DIA
New PVSystem.GD_60d6cfd4cf9e67a7f16a35bf81c3e88a1242d2d415eec0fbdf72e056fcb2b77a_2 phases=1 bus1=node_423776768.2.4 conn=wye kv=0.1270 pf=1 pmpp=12.39 kva=12.39 irradiance=1 temperature=25 %cutin=20 %cutout=20 effcurve=MyEff P-TCurve=MyPvsT Daily=IRRAD_DIA TDaily=TEMP_DIA
New PVSystem.GD_60d6cfd4cf9e67a7f16a35bf81c3e88a1242d2d415eec0fbdf72e056fcb2b77a_3 phases=1 bus1=node_423776768.3.4 conn=wye kv=0.1270 pf=1 pmpp=12.39 kva=12.39 irradiance=1 temperature=25 %cutin=20 %cutout=20 effcurve=MyEff P-TCurve=MyPvsT Daily=IRRAD_DIA TDaily=TEMP_DIA
New PVSystem.GD_0871f5856a29ac2fd8f6101a5d16af11e252755aa5f92a88062d3857526f8cfc_1 phases=1 bus1=node_423776768.1.4 conn=wye kv=0.1270 pf=1 pmpp=1.53 kva=1.53 irradiance=1 temperature=25 %cutin=20 %cutout=20 effcurve=MyEff P-TCurve=MyPvsT Daily=IRRAD_DIA TDaily=TEMP_DIA
New PVSystem.GD_0871f5856a29ac2fd8f6101a5d16af11e252755aa5f92a88062d3857526f8cfc_2 phases=1 bus1=node_423776768.2.4 conn=wye kv=0.1270 pf=1 pmpp=1.53 kva=1.53 irradiance=1 temperature=25 %cutin=20 %cutout=20 effcurve=MyEff P-TCurve=MyPvsT Daily=IRRAD_DIA TDaily=TEMP_DIA
New PVSystem.GD_0871f5856a29ac2fd8f6101a5d16af11e252755aa5f92a88062d3857526f8cfc_3 phases=1 bus1=node_423776768.3.4 conn=wye kv=0.1270 pf=1 pmpp=1.53 kva=1.53 irradiance=1 temperature=25 %cutin=20 %cutout=20 effcurve=MyEff P-TCurve=MyPvsT Daily=IRRAD_DIA TDaily=TEMP_DIA
New PVSystem.GD_512f5a4e703b93221386892b4a34e3a09f33a8ebb4b0b4b5dd532b089af61625_1 phases=1 bus1=node_423776177.1.4 conn=wye kv=0.1270 pf=1 pmpp=0.66 kva=0.66 irradiance=1 temperature=25 %cutin=20 %cutout=20 effcurve=MyEff P-TCurve=MyPvsT Daily=IRRAD_DIA TDaily=TEMP_DIA
New PVSystem.GD_512f5a4e703b93221386892b4a34e3a09f33a8ebb4b0b4b5dd532b089af61625_2 phases=1 bus1=node_423776177.2.4 conn=wye kv=0.1270 pf=1 pmpp=0.66 kva=0.66 irradiance=1 temperature=25 %cutin=20 %cutout=20 effcurve=MyEff P-TCurve=MyPvsT Daily=IRRAD_DIA TDaily=TEMP_DIA
New PVSystem.GD_512f5a4e703b93221386892b4a34e3a09f33a8ebb4b0b4b5dd532b089af61625_3 phases=1 bus1=node_423776177.3.4 conn=wye kv=0.1270 pf=1 pmpp=0.66 kva=0.66 irradiance=1 temperature=25 %cutin=20 %cutout=20 effcurve=MyEff P-TCurve=MyPvsT Daily=IRRAD_DIA TDaily=TEMP_DIA
New PVSystem.GD_e4688a5923568f15132d4830990eb1cd4f9f13a55429a1161d52c9a6e34db616_1 phases=1 bus1=node_423776177.1.4 conn=wye kv=0.1270 pf=1 pmpp=4.56 kva=4.56 irradiance=1 temperature=25 %cutin=20 %cutout=20 effcurve=MyEff P-TCurve=MyPvsT Daily=IRRAD_DIA TDaily=TEMP_DIA
New PVSystem.GD_e4688a5923568f15132d4830990eb1cd4f9f13a55429a1161d52c9a6e34db616_2 phases=1 bus1=node_423776177.2.4 conn=wye kv=0.1270 pf=1 pmpp=4.56 kva=4.56 irradiance=1 temperature=25 %cutin=20 %cutout=20 effcurve=MyEff P-TCurve=MyPvsT Daily=IRRAD_DIA TDaily=TEMP_DIA
New PVSystem.GD_e4688a5923568f15132d4830990eb1cd4f9f13a55429a1161d52c9a6e34db616_3 phases=1 bus1=node_423776177.3.4 conn=wye kv=0.1270 pf=1 pmpp=4.56 kva=4.56 irradiance=1 temperature=25 %cutin=20 %cutout=20 effcurve=MyEff P-TCurve=MyPvsT Daily=IRRAD_DIA TDaily=TEMP_DIA
New PVSystem.GD_b12844e9c363b2e8e2fb11e16e714e7614706d5ee58aac8f354982bf128994eb_1 phases=1 bus1=node_423776162.1.4 conn=wye kv=0.1270 pf=1 pmpp=0.25 kva=0.25 irradiance=1 temperature=25 %cutin=20 %cutout=20 effcurve=MyEff P-TCurve=MyPvsT Daily=IRRAD_DIA TDaily=TEMP_DIA
New PVSystem.GD_b12844e9c363b2e8e2fb11e16e714e7614706d5ee58aac8f354982bf128994eb_2 phases=1 bus1=node_423776162.2.4 conn=wye kv=0.1270 pf=1 pmpp=0.25 kva=0.25 irradiance=1 temperature=25 %cutin=20 %cutout=20 effcurve=MyEff P-TCurve=MyPvsT Daily=IRRAD_DIA TDaily=TEMP_DIA
New PVSystem.GD_b12844e9c363b2e8e2fb11e16e714e7614706d5ee58aac8f354982bf128994eb_3 phases=1 bus1=node_423776162.3.4 conn=wye kv=0.1270 pf=1 pmpp=0.25 kva=0.25 irradiance=1 temperature=25 %cutin=20 %cutout=20 effcurve=MyEff P-TCurve=MyPvsT Daily=IRRAD_DIA TDaily=TEMP_DIA
New PVSystem.GD_f32859af8a5947833bc2f69a86073fdefe678bd2ec3f5d52eab9d6586f4fd12c_1 phases=1 bus1=node_423776162.1.4 conn=wye kv=0.1270 pf=1 pmpp=0.50 kva=0.50 irradiance=1 temperature=25 %cutin=20 %cutout=20 effcurve=MyEff P-TCurve=MyPvsT Daily=IRRAD_DIA TDaily=TEMP_DIA
New PVSystem.GD_f32859af8a5947833bc2f69a86073fdefe678bd2ec3f5d52eab9d6586f4fd12c_2 phases=1 bus1=node_423776162.2.4 conn=wye kv=0.1270 pf=1 pmpp=0.50 kva=0.50 irradiance=1 temperature=25 %cutin=20 %cutout=20 effcurve=MyEff P-TCurve=MyPvsT Daily=IRRAD_DIA TDaily=TEMP_DIA
New PVSystem.GD_f32859af8a5947833bc2f69a86073fdefe678bd2ec3f5d52eab9d6586f4fd12c_3 phases=1 bus1=node_423776162.3.4 conn=wye kv=0.1270 pf=1 pmpp=0.50 kva=0.50 irradiance=1 temperature=25 %cutin=20 %cutout=20 effcurve=MyEff P-TCurve=MyPvsT Daily=IRRAD_DIA TDaily=TEMP_DIA
New PVSystem.GD_828bf00b895c77c6bff70b73ba65b344718e379104e59119b606aba0e48886d2_1 phases=1 bus1=node_423776729.1.4 conn=wye kv=0.1270 pf=1 pmpp=0.49 kva=0.49 irradiance=1 temperature=25 %cutin=20 %cutout=20 effcurve=MyEff P-TCurve=MyPvsT Daily=IRRAD_DIA TDaily=TEMP_DIA
New PVSystem.GD_828bf00b895c77c6bff70b73ba65b344718e379104e59119b606aba0e48886d2_2 phases=1 bus1=node_423776729.2.4 conn=wye kv=0.1270 pf=1 pmpp=0.49 kva=0.49 irradiance=1 temperature=25 %cutin=20 %cutout=20 effcurve=MyEff P-TCurve=MyPvsT Daily=IRRAD_DIA TDaily=TEMP_DIA
New PVSystem.GD_828bf00b895c77c6bff70b73ba65b344718e379104e59119b606aba0e48886d2_3 phases=1 bus1=node_423776729.3.4 conn=wye kv=0.1270 pf=1 pmpp=0.49 kva=0.49 irradiance=1 temperature=25 %cutin=20 %cutout=20 effcurve=MyEff P-TCurve=MyPvsT Daily=IRRAD_DIA TDaily=TEMP_DIA
New PVSystem.GD_075df809e40ee82a39759c099f86b3b72502560535e2a4c901ab423194c922ed_1 phases=1 bus1=node_423776729.1.4 conn=wye kv=0.1270 pf=1 pmpp=0.46 kva=0.46 irradiance=1 temperature=25 %cutin=20 %cutout=20 effcurve=MyEff P-TCurve=MyPvsT Daily=IRRAD_DIA TDaily=TEMP_DIA
New PVSystem.GD_075df809e40ee82a39759c099f86b3b72502560535e2a4c901ab423194c922ed_2 phases=1 bus1=node_423776729.2.4 conn=wye kv=0.1270 pf=1 pmpp=0.46 kva=0.46 irradiance=1 temperature=25 %cutin=20 %cutout=20 effcurve=MyEff P-TCurve=MyPvsT Daily=IRRAD_DIA TDaily=TEMP_DIA
New PVSystem.GD_075df809e40ee82a39759c099f86b3b72502560535e2a4c901ab423194c922ed_3 phases=1 bus1=node_423776729.3.4 conn=wye kv=0.1270 pf=1 pmpp=0.46 kva=0.46 irradiance=1 temperature=25 %cutin=20 %cutout=20 effcurve=MyEff P-TCurve=MyPvsT Daily=IRRAD_DIA TDaily=TEMP_DIA
New PVSystem.GD_358c2564bc84084fc5830ff3ed19fd5877042d1a6958ea87d4c9f3c57cf43b01_1 phases=1 bus1=node_423776729.1.4 conn=wye kv=0.1270 pf=1 pmpp=0.89 kva=0.89 irradiance=1 temperature=25 %cutin=20 %cutout=20 effcurve=MyEff P-TCurve=MyPvsT Daily=IRRAD_DIA TDaily=TEMP_DIA
New PVSystem.GD_358c2564bc84084fc5830ff3ed19fd5877042d1a6958ea87d4c9f3c57cf43b01_2 phases=1 bus1=node_423776729.2.4 conn=wye kv=0.1270 pf=1 pmpp=0.89 kva=0.89 irradiance=1 temperature=25 %cutin=20 %cutout=20 effcurve=MyEff P-TCurve=MyPvsT Daily=IRRAD_DIA TDaily=TEMP_DIA
New PVSystem.GD_358c2564bc84084fc5830ff3ed19fd5877042d1a6958ea87d4c9f3c57cf43b01_3 phases=1 bus1=node_423776729.3.4 conn=wye kv=0.1270 pf=1 pmpp=0.89 kva=0.89 irradiance=1 temperature=25 %cutin=20 %cutout=20 effcurve=MyEff P-TCurve=MyPvsT Daily=IRRAD_DIA TDaily=TEMP_DIA
New PVSystem.GD_464b018dd2aecf89a5fd06a673de216ac360a6b2e57870213b2f872e12b2cfbb_1 phases=1 bus1=node_423775661.1.4 conn=wye kv=0.1270 pf=1 pmpp=0.73 kva=0.73 irradiance=1 temperature=25 %cutin=20 %cutout=20 effcurve=MyEff P-TCurve=MyPvsT Daily=IRRAD_DIA TDaily=TEMP_DIA
New PVSystem.GD_464b018dd2aecf89a5fd06a673de216ac360a6b2e57870213b2f872e12b2cfbb_2 phases=1 bus1=node_423775661.2.4 conn=wye kv=0.1270 pf=1 pmpp=0.73 kva=0.73 irradiance=1 temperature=25 %cutin=20 %cutout=20 effcurve=MyEff P-TCurve=MyPvsT Daily=IRRAD_DIA TDaily=TEMP_DIA
New PVSystem.GD_464b018dd2aecf89a5fd06a673de216ac360a6b2e57870213b2f872e12b2cfbb_3 phases=1 bus1=node_423775661.3.4 conn=wye kv=0.1270 pf=1 pmpp=0.73 kva=0.73 irradiance=1 temperature=25 %cutin=20 %cutout=20 effcurve=MyEff P-TCurve=MyPvsT Daily=IRRAD_DIA TDaily=TEMP_DIA
New PVSystem.GD_7daea959e4ddb6b30e6533fde00d7fcba9461402a685f9fbeb24110eb5668466_1 phases=1 bus1=node_423775775.1.4 conn=wye kv=0.1270 pf=1 pmpp=1.15 kva=1.15 irradiance=1 temperature=25 %cutin=20 %cutout=20 effcurve=MyEff P-TCurve=MyPvsT Daily=IRRAD_DIA TDaily=TEMP_DIA
New PVSystem.GD_7daea959e4ddb6b30e6533fde00d7fcba9461402a685f9fbeb24110eb5668466_2 phases=1 bus1=node_423775775.2.4 conn=wye kv=0.1270 pf=1 pmpp=1.15 kva=1.15 irradiance=1 temperature=25 %cutin=20 %cutout=20 effcurve=MyEff P-TCurve=MyPvsT Daily=IRRAD_DIA TDaily=TEMP_DIA
New PVSystem.GD_7daea959e4ddb6b30e6533fde00d7fcba9461402a685f9fbeb24110eb5668466_3 phases=1 bus1=node_423775775.3.4 conn=wye kv=0.1270 pf=1 pmpp=1.15 kva=1.15 irradiance=1 temperature=25 %cutin=20 %cutout=20 effcurve=MyEff P-TCurve=MyPvsT Daily=IRRAD_DIA TDaily=TEMP_DIA
New PVSystem.GD_5eade3cb16a9e37dcb7f4bcef0d6cc1d4ba3040096e2c943677f98ee1b843a1f_1 phases=1 bus1=node_423776153.1.4 conn=wye kv=0.1270 pf=1 pmpp=0.42 kva=0.42 irradiance=1 temperature=25 %cutin=20 %cutout=20 effcurve=MyEff P-TCurve=MyPvsT Daily=IRRAD_DIA TDaily=TEMP_DIA
New PVSystem.GD_5eade3cb16a9e37dcb7f4bcef0d6cc1d4ba3040096e2c943677f98ee1b843a1f_2 phases=1 bus1=node_423776153.2.4 conn=wye kv=0.1270 pf=1 pmpp=0.42 kva=0.42 irradiance=1 temperature=25 %cutin=20 %cutout=20 effcurve=MyEff P-TCurve=MyPvsT Daily=IRRAD_DIA TDaily=TEMP_DIA
New PVSystem.GD_5eade3cb16a9e37dcb7f4bcef0d6cc1d4ba3040096e2c943677f98ee1b843a1f_3 phases=1 bus1=node_423776153.3.4 conn=wye kv=0.1270 pf=1 pmpp=0.42 kva=0.42 irradiance=1 temperature=25 %cutin=20 %cutout=20 effcurve=MyEff P-TCurve=MyPvsT Daily=IRRAD_DIA TDaily=TEMP_DIA
New PVSystem.GD_705c34d487ac49f15da0305200397cc395e3204ba8677051a5645825af28c4d9_1 phases=1 bus1=node_423776528.1.4 conn=wye kv=0.1270 pf=1 pmpp=0.10 kva=0.10 irradiance=1 temperature=25 %cutin=20 %cutout=20 effcurve=MyEff P-TCurve=MyPvsT Daily=IRRAD_DIA TDaily=TEMP_DIA
New PVSystem.GD_705c34d487ac49f15da0305200397cc395e3204ba8677051a5645825af28c4d9_2 phases=1 bus1=node_423776528.2.4 conn=wye kv=0.1270 pf=1 pmpp=0.10 kva=0.10 irradiance=1 temperature=25 %cutin=20 %cutout=20 effcurve=MyEff P-TCurve=MyPvsT Daily=IRRAD_DIA TDaily=TEMP_DIA
New PVSystem.GD_705c34d487ac49f15da0305200397cc395e3204ba8677051a5645825af28c4d9_3 phases=1 bus1=node_423776528.3.4 conn=wye kv=0.1270 pf=1 pmpp=0.10 kva=0.10 irradiance=1 temperature=25 %cutin=20 %cutout=20 effcurve=MyEff P-TCurve=MyPvsT Daily=IRRAD_DIA TDaily=TEMP_DIA
New PVSystem.GD_3a86405adc9c16297725081cf6d8044ed30ab725ff52d11d279368f4db0a3eaa_1 phases=1 bus1=node_423776540.1.4 conn=wye kv=0.1270 pf=1 pmpp=0.34 kva=0.34 irradiance=1 temperature=25 %cutin=20 %cutout=20 effcurve=MyEff P-TCurve=MyPvsT Daily=IRRAD_DIA TDaily=TEMP_DIA
New PVSystem.GD_3a86405adc9c16297725081cf6d8044ed30ab725ff52d11d279368f4db0a3eaa_2 phases=1 bus1=node_423776540.2.4 conn=wye kv=0.1270 pf=1 pmpp=0.34 kva=0.34 irradiance=1 temperature=25 %cutin=20 %cutout=20 effcurve=MyEff P-TCurve=MyPvsT Daily=IRRAD_DIA TDaily=TEMP_DIA
New PVSystem.GD_3a86405adc9c16297725081cf6d8044ed30ab725ff52d11d279368f4db0a3eaa_3 phases=1 bus1=node_423776540.3.4 conn=wye kv=0.1270 pf=1 pmpp=0.34 kva=0.34 irradiance=1 temperature=25 %cutin=20 %cutout=20 effcurve=MyEff P-TCurve=MyPvsT Daily=IRRAD_DIA TDaily=TEMP_DIA
New PVSystem.GD_dd9560b0a95baef5f930bbcdb9e5df9ae59ac0c2d25c1ec4d39ccdcbf9217f66_1 phases=1 bus1=node_423776468.1.4 conn=wye kv=0.1270 pf=1 pmpp=0.67 kva=0.67 irradiance=1 temperature=25 %cutin=20 %cutout=20 effcurve=MyEff P-TCurve=MyPvsT Daily=IRRAD_DIA TDaily=TEMP_DIA
New PVSystem.GD_dd9560b0a95baef5f930bbcdb9e5df9ae59ac0c2d25c1ec4d39ccdcbf9217f66_2 phases=1 bus1=node_423776468.2.4 conn=wye kv=0.1270 pf=1 pmpp=0.67 kva=0.67 irradiance=1 temperature=25 %cutin=20 %cutout=20 effcurve=MyEff P-TCurve=MyPvsT Daily=IRRAD_DIA TDaily=TEMP_DIA
New PVSystem.GD_dd9560b0a95baef5f930bbcdb9e5df9ae59ac0c2d25c1ec4d39ccdcbf9217f66_3 phases=1 bus1=node_423776468.3.4 conn=wye kv=0.1270 pf=1 pmpp=0.67 kva=0.67 irradiance=1 temperature=25 %cutin=20 %cutout=20 effcurve=MyEff P-TCurve=MyPvsT Daily=IRRAD_DIA TDaily=TEMP_DIA
New PVSystem.GD_35abb3f7cb7eaddb3f77f90c29c1afa87adccef346c82ffa6853dfbe592df7a0_1 phases=1 bus1=node_423776468.1.4 conn=wye kv=0.1270 pf=1 pmpp=0.31 kva=0.31 irradiance=1 temperature=25 %cutin=20 %cutout=20 effcurve=MyEff P-TCurve=MyPvsT Daily=IRRAD_DIA TDaily=TEMP_DIA
New PVSystem.GD_35abb3f7cb7eaddb3f77f90c29c1afa87adccef346c82ffa6853dfbe592df7a0_2 phases=1 bus1=node_423776468.2.4 conn=wye kv=0.1270 pf=1 pmpp=0.31 kva=0.31 irradiance=1 temperature=25 %cutin=20 %cutout=20 effcurve=MyEff P-TCurve=MyPvsT Daily=IRRAD_DIA TDaily=TEMP_DIA
New PVSystem.GD_35abb3f7cb7eaddb3f77f90c29c1afa87adccef346c82ffa6853dfbe592df7a0_3 phases=1 bus1=node_423776468.3.4 conn=wye kv=0.1270 pf=1 pmpp=0.31 kva=0.31 irradiance=1 temperature=25 %cutin=20 %cutout=20 effcurve=MyEff P-TCurve=MyPvsT Daily=IRRAD_DIA TDaily=TEMP_DIA
New PVSystem.GD_87c866dad3c2bfc591435bc66a5ea3e63c8dd5ce1ab1db8986f2eb90473a26cd_1 phases=1 bus1=node_423776468.1.4 conn=wye kv=0.1270 pf=1 pmpp=0.83 kva=0.83 irradiance=1 temperature=25 %cutin=20 %cutout=20 effcurve=MyEff P-TCurve=MyPvsT Daily=IRRAD_DIA TDaily=TEMP_DIA
New PVSystem.GD_87c866dad3c2bfc591435bc66a5ea3e63c8dd5ce1ab1db8986f2eb90473a26cd_2 phases=1 bus1=node_423776468.2.4 conn=wye kv=0.1270 pf=1 pmpp=0.83 kva=0.83 irradiance=1 temperature=25 %cutin=20 %cutout=20 effcurve=MyEff P-TCurve=MyPvsT Daily=IRRAD_DIA TDaily=TEMP_DIA
New PVSystem.GD_87c866dad3c2bfc591435bc66a5ea3e63c8dd5ce1ab1db8986f2eb90473a26cd_3 phases=1 bus1=node_423776468.3.4 conn=wye kv=0.1270 pf=1 pmpp=0.83 kva=0.83 irradiance=1 temperature=25 %cutin=20 %cutout=20 effcurve=MyEff P-TCurve=MyPvsT Daily=IRRAD_DIA TDaily=TEMP_DIA
New PVSystem.GD_cc1745636bb2bcf5e0d7f4beccae324b54c58e68103d9fc93213b8bbf933cf6a_1 phases=1 bus1=node_423776993.1.4 conn=wye kv=0.1270 pf=1 pmpp=0.23 kva=0.23 irradiance=1 temperature=25 %cutin=20 %cutout=20 effcurve=MyEff P-TCurve=MyPvsT Daily=IRRAD_DIA TDaily=TEMP_DIA
New PVSystem.GD_cc1745636bb2bcf5e0d7f4beccae324b54c58e68103d9fc93213b8bbf933cf6a_2 phases=1 bus1=node_423776993.2.4 conn=wye kv=0.1270 pf=1 pmpp=0.23 kva=0.23 irradiance=1 temperature=25 %cutin=20 %cutout=20 effcurve=MyEff P-TCurve=MyPvsT Daily=IRRAD_DIA TDaily=TEMP_DIA
New PVSystem.GD_cc1745636bb2bcf5e0d7f4beccae324b54c58e68103d9fc93213b8bbf933cf6a_3 phases=1 bus1=node_423776993.3.4 conn=wye kv=0.1270 pf=1 pmpp=0.23 kva=0.23 irradiance=1 temperature=25 %cutin=20 %cutout=20 effcurve=MyEff P-TCurve=MyPvsT Daily=IRRAD_DIA TDaily=TEMP_DIA
New PVSystem.GD_dbad0fb1d2ed21f71a010dec5a3cef156ef57edf959d2cc8eebb1f9defe06883_1 phases=1 bus1=node_559146236.1.4 conn=wye kv=0.1270 pf=1 pmpp=7.37 kva=7.37 irradiance=1 temperature=25 %cutin=20 %cutout=20 effcurve=MyEff P-TCurve=MyPvsT Daily=IRRAD_DIA TDaily=TEMP_DIA
New PVSystem.GD_dbad0fb1d2ed21f71a010dec5a3cef156ef57edf959d2cc8eebb1f9defe06883_2 phases=1 bus1=node_559146236.2.4 conn=wye kv=0.1270 pf=1 pmpp=7.37 kva=7.37 irradiance=1 temperature=25 %cutin=20 %cutout=20 effcurve=MyEff P-TCurve=MyPvsT Daily=IRRAD_DIA TDaily=TEMP_DIA
New PVSystem.GD_dbad0fb1d2ed21f71a010dec5a3cef156ef57edf959d2cc8eebb1f9defe06883_3 phases=1 bus1=node_559146236.3.4 conn=wye kv=0.1270 pf=1 pmpp=7.37 kva=7.37 irradiance=1 temperature=25 %cutin=20 %cutout=20 effcurve=MyEff P-TCurve=MyPvsT Daily=IRRAD_DIA TDaily=TEMP_DIA
New PVSystem.GD_24370a4bbbe62b3836efe01114b35ab3303204c72f2fa264b41bb1f951e27f4a_1 phases=1 bus1=node_423775862.1.4 conn=wye kv=0.1270 pf=1 pmpp=0.40 kva=0.40 irradiance=1 temperature=25 %cutin=20 %cutout=20 effcurve=MyEff P-TCurve=MyPvsT Daily=IRRAD_DIA TDaily=TEMP_DIA
New PVSystem.GD_24370a4bbbe62b3836efe01114b35ab3303204c72f2fa264b41bb1f951e27f4a_2 phases=1 bus1=node_423775862.2.4 conn=wye kv=0.1270 pf=1 pmpp=0.40 kva=0.40 irradiance=1 temperature=25 %cutin=20 %cutout=20 effcurve=MyEff P-TCurve=MyPvsT Daily=IRRAD_DIA TDaily=TEMP_DIA
New PVSystem.GD_24370a4bbbe62b3836efe01114b35ab3303204c72f2fa264b41bb1f951e27f4a_3 phases=1 bus1=node_423775862.3.4 conn=wye kv=0.1270 pf=1 pmpp=0.40 kva=0.40 irradiance=1 temperature=25 %cutin=20 %cutout=20 effcurve=MyEff P-TCurve=MyPvsT Daily=IRRAD_DIA TDaily=TEMP_DIA
New PVSystem.GD_53b6af3f31f7e1338f9fd7b7173ae60917dab4972fc6287f5f2b624d9023fe6b_1 phases=1 bus1=node_423775604.1.4 conn=wye kv=0.1270 pf=1 pmpp=1.47 kva=1.47 irradiance=1 temperature=25 %cutin=20 %cutout=20 effcurve=MyEff P-TCurve=MyPvsT Daily=IRRAD_DIA TDaily=TEMP_DIA
New PVSystem.GD_53b6af3f31f7e1338f9fd7b7173ae60917dab4972fc6287f5f2b624d9023fe6b_2 phases=1 bus1=node_423775604.2.4 conn=wye kv=0.1270 pf=1 pmpp=1.47 kva=1.47 irradiance=1 temperature=25 %cutin=20 %cutout=20 effcurve=MyEff P-TCurve=MyPvsT Daily=IRRAD_DIA TDaily=TEMP_DIA
New PVSystem.GD_53b6af3f31f7e1338f9fd7b7173ae60917dab4972fc6287f5f2b624d9023fe6b_3 phases=1 bus1=node_423775604.3.4 conn=wye kv=0.1270 pf=1 pmpp=1.47 kva=1.47 irradiance=1 temperature=25 %cutin=20 %cutout=20 effcurve=MyEff P-TCurve=MyPvsT Daily=IRRAD_DIA TDaily=TEMP_DIA
New PVSystem.GD_f2a9cdd1126345b6e3154027432541df4fabf17f99f1b4373b378bdef54ed3c5_1 phases=1 bus1=node_423775409.1.4 conn=wye kv=0.1270 pf=1 pmpp=0.78 kva=0.78 irradiance=1 temperature=25 %cutin=20 %cutout=20 effcurve=MyEff P-TCurve=MyPvsT Daily=IRRAD_DIA TDaily=TEMP_DIA
New PVSystem.GD_f2a9cdd1126345b6e3154027432541df4fabf17f99f1b4373b378bdef54ed3c5_2 phases=1 bus1=node_423775409.2.4 conn=wye kv=0.1270 pf=1 pmpp=0.78 kva=0.78 irradiance=1 temperature=25 %cutin=20 %cutout=20 effcurve=MyEff P-TCurve=MyPvsT Daily=IRRAD_DIA TDaily=TEMP_DIA
New PVSystem.GD_f2a9cdd1126345b6e3154027432541df4fabf17f99f1b4373b378bdef54ed3c5_3 phases=1 bus1=node_423775409.3.4 conn=wye kv=0.1270 pf=1 pmpp=0.78 kva=0.78 irradiance=1 temperature=25 %cutin=20 %cutout=20 effcurve=MyEff P-TCurve=MyPvsT Daily=IRRAD_DIA TDaily=TEMP_DIA
New PVSystem.GD_9a8a59f01605cf3f9d047d9a667a21e396885a95b9edd595fb2de06002af4dd2_1 phases=1 bus1=node_423776591.1.4 conn=wye kv=0.1270 pf=1 pmpp=0.88 kva=0.88 irradiance=1 temperature=25 %cutin=20 %cutout=20 effcurve=MyEff P-TCurve=MyPvsT Daily=IRRAD_DIA TDaily=TEMP_DIA
New PVSystem.GD_9a8a59f01605cf3f9d047d9a667a21e396885a95b9edd595fb2de06002af4dd2_2 phases=1 bus1=node_423776591.2.4 conn=wye kv=0.1270 pf=1 pmpp=0.88 kva=0.88 irradiance=1 temperature=25 %cutin=20 %cutout=20 effcurve=MyEff P-TCurve=MyPvsT Daily=IRRAD_DIA TDaily=TEMP_DIA
New PVSystem.GD_9a8a59f01605cf3f9d047d9a667a21e396885a95b9edd595fb2de06002af4dd2_3 phases=1 bus1=node_423776591.3.4 conn=wye kv=0.1270 pf=1 pmpp=0.88 kva=0.88 irradiance=1 temperature=25 %cutin=20 %cutout=20 effcurve=MyEff P-TCurve=MyPvsT Daily=IRRAD_DIA TDaily=TEMP_DIA
New PVSystem.GD_9c73ae5bda2da87c0e409fa88f09180a47194c8e9debcd396730c7a6c618e4f8_1 phases=1 bus1=node_423775292.1.4 conn=wye kv=0.1270 pf=1 pmpp=0.71 kva=0.71 irradiance=1 temperature=25 %cutin=20 %cutout=20 effcurve=MyEff P-TCurve=MyPvsT Daily=IRRAD_DIA TDaily=TEMP_DIA
New PVSystem.GD_9c73ae5bda2da87c0e409fa88f09180a47194c8e9debcd396730c7a6c618e4f8_2 phases=1 bus1=node_423775292.2.4 conn=wye kv=0.1270 pf=1 pmpp=0.71 kva=0.71 irradiance=1 temperature=25 %cutin=20 %cutout=20 effcurve=MyEff P-TCurve=MyPvsT Daily=IRRAD_DIA TDaily=TEMP_DIA
New PVSystem.GD_9c73ae5bda2da87c0e409fa88f09180a47194c8e9debcd396730c7a6c618e4f8_3 phases=1 bus1=node_423775292.3.4 conn=wye kv=0.1270 pf=1 pmpp=0.71 kva=0.71 irradiance=1 temperature=25 %cutin=20 %cutout=20 effcurve=MyEff P-TCurve=MyPvsT Daily=IRRAD_DIA TDaily=TEMP_DIA
New PVSystem.GD_b16d2e7cb7f4efaecbf433ea9592ee4b8e0b2994c6f79869983e6e98362631e3_1 phases=1 bus1=node_423764384.1.4 conn=wye kv=0.1270 pf=1 pmpp=2.23 kva=2.23 irradiance=1 temperature=25 %cutin=20 %cutout=20 effcurve=MyEff P-TCurve=MyPvsT Daily=IRRAD_DIA TDaily=TEMP_DIA
New PVSystem.GD_b16d2e7cb7f4efaecbf433ea9592ee4b8e0b2994c6f79869983e6e98362631e3_2 phases=1 bus1=node_423764384.2.4 conn=wye kv=0.1270 pf=1 pmpp=2.23 kva=2.23 irradiance=1 temperature=25 %cutin=20 %cutout=20 effcurve=MyEff P-TCurve=MyPvsT Daily=IRRAD_DIA TDaily=TEMP_DIA
New PVSystem.GD_b16d2e7cb7f4efaecbf433ea9592ee4b8e0b2994c6f79869983e6e98362631e3_3 phases=1 bus1=node_423764384.3.4 conn=wye kv=0.1270 pf=1 pmpp=2.23 kva=2.23 irradiance=1 temperature=25 %cutin=20 %cutout=20 effcurve=MyEff P-TCurve=MyPvsT Daily=IRRAD_DIA TDaily=TEMP_DIA
New PVSystem.GD_d8383b34e01903a353e0c4e661a424ee5a0190c8aeb2943d5b1cd6ea78c87a08_1 phases=1 bus1=node_423776699.1.4 conn=wye kv=0.1270 pf=1 pmpp=0.41 kva=0.41 irradiance=1 temperature=25 %cutin=20 %cutout=20 effcurve=MyEff P-TCurve=MyPvsT Daily=IRRAD_DIA TDaily=TEMP_DIA
New PVSystem.GD_d8383b34e01903a353e0c4e661a424ee5a0190c8aeb2943d5b1cd6ea78c87a08_2 phases=1 bus1=node_423776699.2.4 conn=wye kv=0.1270 pf=1 pmpp=0.41 kva=0.41 irradiance=1 temperature=25 %cutin=20 %cutout=20 effcurve=MyEff P-TCurve=MyPvsT Daily=IRRAD_DIA TDaily=TEMP_DIA
New PVSystem.GD_d8383b34e01903a353e0c4e661a424ee5a0190c8aeb2943d5b1cd6ea78c87a08_3 phases=1 bus1=node_423776699.3.4 conn=wye kv=0.1270 pf=1 pmpp=0.41 kva=0.41 irradiance=1 temperature=25 %cutin=20 %cutout=20 effcurve=MyEff P-TCurve=MyPvsT Daily=IRRAD_DIA TDaily=TEMP_DIA
New PVSystem.GD_efbdb5b3a68a49ee8772e227b8e5c5975337f3d6d2cf81b8681d1a7a367a96cf_1 phases=1 bus1=node_423776576.1.4 conn=wye kv=0.1270 pf=1 pmpp=0.91 kva=0.91 irradiance=1 temperature=25 %cutin=20 %cutout=20 effcurve=MyEff P-TCurve=MyPvsT Daily=IRRAD_DIA TDaily=TEMP_DIA
New PVSystem.GD_efbdb5b3a68a49ee8772e227b8e5c5975337f3d6d2cf81b8681d1a7a367a96cf_2 phases=1 bus1=node_423776576.2.4 conn=wye kv=0.1270 pf=1 pmpp=0.91 kva=0.91 irradiance=1 temperature=25 %cutin=20 %cutout=20 effcurve=MyEff P-TCurve=MyPvsT Daily=IRRAD_DIA TDaily=TEMP_DIA
New PVSystem.GD_efbdb5b3a68a49ee8772e227b8e5c5975337f3d6d2cf81b8681d1a7a367a96cf_3 phases=1 bus1=node_423776576.3.4 conn=wye kv=0.1270 pf=1 pmpp=0.91 kva=0.91 irradiance=1 temperature=25 %cutin=20 %cutout=20 effcurve=MyEff P-TCurve=MyPvsT Daily=IRRAD_DIA TDaily=TEMP_DIA
New PVSystem.GD_032541efeccfe42ee0a7c394a93be923e738c4683e90ed94665af7d1c678c484_1 phases=1 bus1=node_423776219.1.4 conn=wye kv=0.1270 pf=1 pmpp=0.42 kva=0.42 irradiance=1 temperature=25 %cutin=20 %cutout=20 effcurve=MyEff P-TCurve=MyPvsT Daily=IRRAD_DIA TDaily=TEMP_DIA
New PVSystem.GD_032541efeccfe42ee0a7c394a93be923e738c4683e90ed94665af7d1c678c484_2 phases=1 bus1=node_423776219.2.4 conn=wye kv=0.1270 pf=1 pmpp=0.42 kva=0.42 irradiance=1 temperature=25 %cutin=20 %cutout=20 effcurve=MyEff P-TCurve=MyPvsT Daily=IRRAD_DIA TDaily=TEMP_DIA
New PVSystem.GD_032541efeccfe42ee0a7c394a93be923e738c4683e90ed94665af7d1c678c484_3 phases=1 bus1=node_423776219.3.4 conn=wye kv=0.1270 pf=1 pmpp=0.42 kva=0.42 irradiance=1 temperature=25 %cutin=20 %cutout=20 effcurve=MyEff P-TCurve=MyPvsT Daily=IRRAD_DIA TDaily=TEMP_DIA
New PVSystem.GD_0dfa7f21999b2c53f831e6d670d1798f8230caa32d01bf22ac99b60179a10c87_1 phases=1 bus1=node_423776219.1.4 conn=wye kv=0.1270 pf=1 pmpp=0.60 kva=0.60 irradiance=1 temperature=25 %cutin=20 %cutout=20 effcurve=MyEff P-TCurve=MyPvsT Daily=IRRAD_DIA TDaily=TEMP_DIA
New PVSystem.GD_0dfa7f21999b2c53f831e6d670d1798f8230caa32d01bf22ac99b60179a10c87_2 phases=1 bus1=node_423776219.2.4 conn=wye kv=0.1270 pf=1 pmpp=0.60 kva=0.60 irradiance=1 temperature=25 %cutin=20 %cutout=20 effcurve=MyEff P-TCurve=MyPvsT Daily=IRRAD_DIA TDaily=TEMP_DIA
New PVSystem.GD_0dfa7f21999b2c53f831e6d670d1798f8230caa32d01bf22ac99b60179a10c87_3 phases=1 bus1=node_423776219.3.4 conn=wye kv=0.1270 pf=1 pmpp=0.60 kva=0.60 irradiance=1 temperature=25 %cutin=20 %cutout=20 effcurve=MyEff P-TCurve=MyPvsT Daily=IRRAD_DIA TDaily=TEMP_DIA
New PVSystem.GD_c8f4b7bcb8cd69ca00f422b3fbb454057fd678cfbedeb70633be9d5923179f15_1 phases=1 bus1=node_423776219.1.4 conn=wye kv=0.1270 pf=1 pmpp=0.48 kva=0.48 irradiance=1 temperature=25 %cutin=20 %cutout=20 effcurve=MyEff P-TCurve=MyPvsT Daily=IRRAD_DIA TDaily=TEMP_DIA
New PVSystem.GD_c8f4b7bcb8cd69ca00f422b3fbb454057fd678cfbedeb70633be9d5923179f15_2 phases=1 bus1=node_423776219.2.4 conn=wye kv=0.1270 pf=1 pmpp=0.48 kva=0.48 irradiance=1 temperature=25 %cutin=20 %cutout=20 effcurve=MyEff P-TCurve=MyPvsT Daily=IRRAD_DIA TDaily=TEMP_DIA
New PVSystem.GD_c8f4b7bcb8cd69ca00f422b3fbb454057fd678cfbedeb70633be9d5923179f15_3 phases=1 bus1=node_423776219.3.4 conn=wye kv=0.1270 pf=1 pmpp=0.48 kva=0.48 irradiance=1 temperature=25 %cutin=20 %cutout=20 effcurve=MyEff P-TCurve=MyPvsT Daily=IRRAD_DIA TDaily=TEMP_DIA
New PVSystem.GD_321e20686a0d4c341fd963234ae8671a25cd04dd3032f4352b04d4bf02615d09_1 phases=1 bus1=node_423776390.1.4 conn=wye kv=0.1270 pf=1 pmpp=0.26 kva=0.26 irradiance=1 temperature=25 %cutin=20 %cutout=20 effcurve=MyEff P-TCurve=MyPvsT Daily=IRRAD_DIA TDaily=TEMP_DIA
New PVSystem.GD_321e20686a0d4c341fd963234ae8671a25cd04dd3032f4352b04d4bf02615d09_2 phases=1 bus1=node_423776390.2.4 conn=wye kv=0.1270 pf=1 pmpp=0.26 kva=0.26 irradiance=1 temperature=25 %cutin=20 %cutout=20 effcurve=MyEff P-TCurve=MyPvsT Daily=IRRAD_DIA TDaily=TEMP_DIA
New PVSystem.GD_321e20686a0d4c341fd963234ae8671a25cd04dd3032f4352b04d4bf02615d09_3 phases=1 bus1=node_423776390.3.4 conn=wye kv=0.1270 pf=1 pmpp=0.26 kva=0.26 irradiance=1 temperature=25 %cutin=20 %cutout=20 effcurve=MyEff P-TCurve=MyPvsT Daily=IRRAD_DIA TDaily=TEMP_DIA
New PVSystem.GD_b331f40a33210387584e57750e2d4e30c18854d145bd98a3836c6679d26cf3f6_1 phases=1 bus1=node_423773798.1.4 conn=wye kv=0.1200 pf=1 pmpp=0.68 kva=0.68 irradiance=1 temperature=25 %cutin=20 %cutout=20 effcurve=MyEff P-TCurve=MyPvsT Daily=IRRAD_DIA TDaily=TEMP_DIA
New PVSystem.GD_b331f40a33210387584e57750e2d4e30c18854d145bd98a3836c6679d26cf3f6_2 phases=1 bus1=node_423773798.2.4 conn=wye kv=0.1200 pf=1 pmpp=0.68 kva=0.68 irradiance=1 temperature=25 %cutin=20 %cutout=20 effcurve=MyEff P-TCurve=MyPvsT Daily=IRRAD_DIA TDaily=TEMP_DIA
New PVSystem.GD_97c4061bc9eb59d91119667067803f7fe2f029764d3863376340eeee091cd0ab_1 phases=1 bus1=node_423773798.1.4 conn=wye kv=0.1200 pf=1 pmpp=2.56 kva=2.56 irradiance=1 temperature=25 %cutin=20 %cutout=20 effcurve=MyEff P-TCurve=MyPvsT Daily=IRRAD_DIA TDaily=TEMP_DIA
New PVSystem.GD_97c4061bc9eb59d91119667067803f7fe2f029764d3863376340eeee091cd0ab_2 phases=1 bus1=node_423773798.2.4 conn=wye kv=0.1200 pf=1 pmpp=2.56 kva=2.56 irradiance=1 temperature=25 %cutin=20 %cutout=20 effcurve=MyEff P-TCurve=MyPvsT Daily=IRRAD_DIA TDaily=TEMP_DIA
New PVSystem.GD_88211a04ae6b2aae54a3609718a3faafa17819a617dedc013e127757be65af15_1 phases=1 bus1=node_423773798.1.4 conn=wye kv=0.1200 pf=1 pmpp=4.76 kva=4.76 irradiance=1 temperature=25 %cutin=20 %cutout=20 effcurve=MyEff P-TCurve=MyPvsT Daily=IRRAD_DIA TDaily=TEMP_DIA
New PVSystem.GD_88211a04ae6b2aae54a3609718a3faafa17819a617dedc013e127757be65af15_2 phases=1 bus1=node_423773798.2.4 conn=wye kv=0.1200 pf=1 pmpp=4.76 kva=4.76 irradiance=1 temperature=25 %cutin=20 %cutout=20 effcurve=MyEff P-TCurve=MyPvsT Daily=IRRAD_DIA TDaily=TEMP_DIA
New PVSystem.GD_2b14003130b95324f52cbb05f1e91323b6e24a9094cce1714e83ccb3eaf1c25b_1 phases=1 bus1=node_423774017.1.4 conn=wye kv=0.1270 pf=1 pmpp=0.53 kva=0.53 irradiance=1 temperature=25 %cutin=20 %cutout=20 effcurve=MyEff P-TCurve=MyPvsT Daily=IRRAD_DIA TDaily=TEMP_DIA
New PVSystem.GD_2b14003130b95324f52cbb05f1e91323b6e24a9094cce1714e83ccb3eaf1c25b_2 phases=1 bus1=node_423774017.2.4 conn=wye kv=0.1270 pf=1 pmpp=0.53 kva=0.53 irradiance=1 temperature=25 %cutin=20 %cutout=20 effcurve=MyEff P-TCurve=MyPvsT Daily=IRRAD_DIA TDaily=TEMP_DIA
New PVSystem.GD_2b14003130b95324f52cbb05f1e91323b6e24a9094cce1714e83ccb3eaf1c25b_3 phases=1 bus1=node_423774017.3.4 conn=wye kv=0.1270 pf=1 pmpp=0.53 kva=0.53 irradiance=1 temperature=25 %cutin=20 %cutout=20 effcurve=MyEff P-TCurve=MyPvsT Daily=IRRAD_DIA TDaily=TEMP_DIA
New PVSystem.GD_8d4b0504154a9ed12d6b79fd9c77e18773a3206148f6b4c1c2daf78b7793b02f_1 phases=1 bus1=node_423774017.1.4 conn=wye kv=0.1270 pf=1 pmpp=1.07 kva=1.07 irradiance=1 temperature=25 %cutin=20 %cutout=20 effcurve=MyEff P-TCurve=MyPvsT Daily=IRRAD_DIA TDaily=TEMP_DIA
New PVSystem.GD_8d4b0504154a9ed12d6b79fd9c77e18773a3206148f6b4c1c2daf78b7793b02f_2 phases=1 bus1=node_423774017.2.4 conn=wye kv=0.1270 pf=1 pmpp=1.07 kva=1.07 irradiance=1 temperature=25 %cutin=20 %cutout=20 effcurve=MyEff P-TCurve=MyPvsT Daily=IRRAD_DIA TDaily=TEMP_DIA
New PVSystem.GD_8d4b0504154a9ed12d6b79fd9c77e18773a3206148f6b4c1c2daf78b7793b02f_3 phases=1 bus1=node_423774017.3.4 conn=wye kv=0.1270 pf=1 pmpp=1.07 kva=1.07 irradiance=1 temperature=25 %cutin=20 %cutout=20 effcurve=MyEff P-TCurve=MyPvsT Daily=IRRAD_DIA TDaily=TEMP_DIA
New PVSystem.GD_8399222cd38ceb12410ecdb1586a3a9bbb44d461ac9cfcda5d3d780426d10f05_1 phases=1 bus1=node_423774017.1.4 conn=wye kv=0.1270 pf=1 pmpp=1.84 kva=1.84 irradiance=1 temperature=25 %cutin=20 %cutout=20 effcurve=MyEff P-TCurve=MyPvsT Daily=IRRAD_DIA TDaily=TEMP_DIA
New PVSystem.GD_8399222cd38ceb12410ecdb1586a3a9bbb44d461ac9cfcda5d3d780426d10f05_2 phases=1 bus1=node_423774017.2.4 conn=wye kv=0.1270 pf=1 pmpp=1.84 kva=1.84 irradiance=1 temperature=25 %cutin=20 %cutout=20 effcurve=MyEff P-TCurve=MyPvsT Daily=IRRAD_DIA TDaily=TEMP_DIA
New PVSystem.GD_8399222cd38ceb12410ecdb1586a3a9bbb44d461ac9cfcda5d3d780426d10f05_3 phases=1 bus1=node_423774017.3.4 conn=wye kv=0.1270 pf=1 pmpp=1.84 kva=1.84 irradiance=1 temperature=25 %cutin=20 %cutout=20 effcurve=MyEff P-TCurve=MyPvsT Daily=IRRAD_DIA TDaily=TEMP_DIA
New PVSystem.GD_0c1d4fca6eba9dd008019111b9f4cd832399ccd44df70a352bb9abe754a62387_1 phases=1 bus1=node_423774017.1.4 conn=wye kv=0.1270 pf=1 pmpp=1.78 kva=1.78 irradiance=1 temperature=25 %cutin=20 %cutout=20 effcurve=MyEff P-TCurve=MyPvsT Daily=IRRAD_DIA TDaily=TEMP_DIA
New PVSystem.GD_0c1d4fca6eba9dd008019111b9f4cd832399ccd44df70a352bb9abe754a62387_2 phases=1 bus1=node_423774017.2.4 conn=wye kv=0.1270 pf=1 pmpp=1.78 kva=1.78 irradiance=1 temperature=25 %cutin=20 %cutout=20 effcurve=MyEff P-TCurve=MyPvsT Daily=IRRAD_DIA TDaily=TEMP_DIA
New PVSystem.GD_0c1d4fca6eba9dd008019111b9f4cd832399ccd44df70a352bb9abe754a62387_3 phases=1 bus1=node_423774017.3.4 conn=wye kv=0.1270 pf=1 pmpp=1.78 kva=1.78 irradiance=1 temperature=25 %cutin=20 %cutout=20 effcurve=MyEff P-TCurve=MyPvsT Daily=IRRAD_DIA TDaily=TEMP_DIA
New PVSystem.GD_3d7071cc7b539418d2c5b8e7d6bb0930d430afb1fe7b816172c388e968adeee2_1 phases=1 bus1=node_423765023.1.4 conn=wye kv=0.1270 pf=1 pmpp=0.63 kva=0.63 irradiance=1 temperature=25 %cutin=20 %cutout=20 effcurve=MyEff P-TCurve=MyPvsT Daily=IRRAD_DIA TDaily=TEMP_DIA
New PVSystem.GD_3d7071cc7b539418d2c5b8e7d6bb0930d430afb1fe7b816172c388e968adeee2_2 phases=1 bus1=node_423765023.2.4 conn=wye kv=0.1270 pf=1 pmpp=0.63 kva=0.63 irradiance=1 temperature=25 %cutin=20 %cutout=20 effcurve=MyEff P-TCurve=MyPvsT Daily=IRRAD_DIA TDaily=TEMP_DIA
New PVSystem.GD_3d7071cc7b539418d2c5b8e7d6bb0930d430afb1fe7b816172c388e968adeee2_3 phases=1 bus1=node_423765023.3.4 conn=wye kv=0.1270 pf=1 pmpp=0.63 kva=0.63 irradiance=1 temperature=25 %cutin=20 %cutout=20 effcurve=MyEff P-TCurve=MyPvsT Daily=IRRAD_DIA TDaily=TEMP_DIA
New PVSystem.GD_97c6f9276856a4715daf0edf84c179b43c0b04b8a69fd7f927563915529e3c8f_1 phases=1 bus1=node_423776336.1.4 conn=wye kv=0.1270 pf=1 pmpp=0.54 kva=0.54 irradiance=1 temperature=25 %cutin=20 %cutout=20 effcurve=MyEff P-TCurve=MyPvsT Daily=IRRAD_DIA TDaily=TEMP_DIA
New PVSystem.GD_97c6f9276856a4715daf0edf84c179b43c0b04b8a69fd7f927563915529e3c8f_2 phases=1 bus1=node_423776336.2.4 conn=wye kv=0.1270 pf=1 pmpp=0.54 kva=0.54 irradiance=1 temperature=25 %cutin=20 %cutout=20 effcurve=MyEff P-TCurve=MyPvsT Daily=IRRAD_DIA TDaily=TEMP_DIA
New PVSystem.GD_97c6f9276856a4715daf0edf84c179b43c0b04b8a69fd7f927563915529e3c8f_3 phases=1 bus1=node_423776336.3.4 conn=wye kv=0.1270 pf=1 pmpp=0.54 kva=0.54 irradiance=1 temperature=25 %cutin=20 %cutout=20 effcurve=MyEff P-TCurve=MyPvsT Daily=IRRAD_DIA TDaily=TEMP_DIA
New PVSystem.GD_10c32c2f303f77dfb51d9551d4fcb4236d84a597038f5569fe6f34d9b9195d55_1 phases=1 bus1=node_423776336.1.4 conn=wye kv=0.1270 pf=1 pmpp=2.75 kva=2.75 irradiance=1 temperature=25 %cutin=20 %cutout=20 effcurve=MyEff P-TCurve=MyPvsT Daily=IRRAD_DIA TDaily=TEMP_DIA
New PVSystem.GD_10c32c2f303f77dfb51d9551d4fcb4236d84a597038f5569fe6f34d9b9195d55_2 phases=1 bus1=node_423776336.2.4 conn=wye kv=0.1270 pf=1 pmpp=2.75 kva=2.75 irradiance=1 temperature=25 %cutin=20 %cutout=20 effcurve=MyEff P-TCurve=MyPvsT Daily=IRRAD_DIA TDaily=TEMP_DIA
New PVSystem.GD_10c32c2f303f77dfb51d9551d4fcb4236d84a597038f5569fe6f34d9b9195d55_3 phases=1 bus1=node_423776336.3.4 conn=wye kv=0.1270 pf=1 pmpp=2.75 kva=2.75 irradiance=1 temperature=25 %cutin=20 %cutout=20 effcurve=MyEff P-TCurve=MyPvsT Daily=IRRAD_DIA TDaily=TEMP_DIA
New PVSystem.GD_22d8a795093479621370ae6e356d9db8d29fcda3c9559c6d3fc04c4f83188998_1 phases=1 bus1=node_423775583.1.4 conn=wye kv=0.1270 pf=1 pmpp=0.41 kva=0.41 irradiance=1 temperature=25 %cutin=20 %cutout=20 effcurve=MyEff P-TCurve=MyPvsT Daily=IRRAD_DIA TDaily=TEMP_DIA
New PVSystem.GD_22d8a795093479621370ae6e356d9db8d29fcda3c9559c6d3fc04c4f83188998_2 phases=1 bus1=node_423775583.2.4 conn=wye kv=0.1270 pf=1 pmpp=0.41 kva=0.41 irradiance=1 temperature=25 %cutin=20 %cutout=20 effcurve=MyEff P-TCurve=MyPvsT Daily=IRRAD_DIA TDaily=TEMP_DIA
New PVSystem.GD_22d8a795093479621370ae6e356d9db8d29fcda3c9559c6d3fc04c4f83188998_3 phases=1 bus1=node_423775583.3.4 conn=wye kv=0.1270 pf=1 pmpp=0.41 kva=0.41 irradiance=1 temperature=25 %cutin=20 %cutout=20 effcurve=MyEff P-TCurve=MyPvsT Daily=IRRAD_DIA TDaily=TEMP_DIA
New PVSystem.GD_8a1af0a7adedeb0acb0c313a3558ab676e6ccfba9656b233f5e08ac2b13443f2_1 phases=1 bus1=node_423775583.1.4 conn=wye kv=0.1270 pf=1 pmpp=0.67 kva=0.67 irradiance=1 temperature=25 %cutin=20 %cutout=20 effcurve=MyEff P-TCurve=MyPvsT Daily=IRRAD_DIA TDaily=TEMP_DIA
New PVSystem.GD_8a1af0a7adedeb0acb0c313a3558ab676e6ccfba9656b233f5e08ac2b13443f2_2 phases=1 bus1=node_423775583.2.4 conn=wye kv=0.1270 pf=1 pmpp=0.67 kva=0.67 irradiance=1 temperature=25 %cutin=20 %cutout=20 effcurve=MyEff P-TCurve=MyPvsT Daily=IRRAD_DIA TDaily=TEMP_DIA
New PVSystem.GD_8a1af0a7adedeb0acb0c313a3558ab676e6ccfba9656b233f5e08ac2b13443f2_3 phases=1 bus1=node_423775583.3.4 conn=wye kv=0.1270 pf=1 pmpp=0.67 kva=0.67 irradiance=1 temperature=25 %cutin=20 %cutout=20 effcurve=MyEff P-TCurve=MyPvsT Daily=IRRAD_DIA TDaily=TEMP_DIA
New PVSystem.GD_d58e2bc7abd34db73b908944be95d3e878071e6d4e40569bca3ff5513e7b2651_1 phases=1 bus1=node_423775583.1.4 conn=wye kv=0.1270 pf=1 pmpp=0.38 kva=0.38 irradiance=1 temperature=25 %cutin=20 %cutout=20 effcurve=MyEff P-TCurve=MyPvsT Daily=IRRAD_DIA TDaily=TEMP_DIA
New PVSystem.GD_d58e2bc7abd34db73b908944be95d3e878071e6d4e40569bca3ff5513e7b2651_2 phases=1 bus1=node_423775583.2.4 conn=wye kv=0.1270 pf=1 pmpp=0.38 kva=0.38 irradiance=1 temperature=25 %cutin=20 %cutout=20 effcurve=MyEff P-TCurve=MyPvsT Daily=IRRAD_DIA TDaily=TEMP_DIA
New PVSystem.GD_d58e2bc7abd34db73b908944be95d3e878071e6d4e40569bca3ff5513e7b2651_3 phases=1 bus1=node_423775583.3.4 conn=wye kv=0.1270 pf=1 pmpp=0.38 kva=0.38 irradiance=1 temperature=25 %cutin=20 %cutout=20 effcurve=MyEff P-TCurve=MyPvsT Daily=IRRAD_DIA TDaily=TEMP_DIA
New PVSystem.GD_9463bb081031be0e91cdd891024065afaed74750b1c294ffdc5cd991b3a38d0d_1 phases=1 bus1=node_423775697.1.4 conn=wye kv=0.1270 pf=1 pmpp=0.02 kva=0.10 irradiance=1 temperature=25 %cutin=20 %cutout=20 effcurve=MyEff P-TCurve=MyPvsT Daily=IRRAD_DIA TDaily=TEMP_DIA
New PVSystem.GD_9463bb081031be0e91cdd891024065afaed74750b1c294ffdc5cd991b3a38d0d_2 phases=1 bus1=node_423775697.2.4 conn=wye kv=0.1270 pf=1 pmpp=0.02 kva=0.10 irradiance=1 temperature=25 %cutin=20 %cutout=20 effcurve=MyEff P-TCurve=MyPvsT Daily=IRRAD_DIA TDaily=TEMP_DIA
New PVSystem.GD_9463bb081031be0e91cdd891024065afaed74750b1c294ffdc5cd991b3a38d0d_3 phases=1 bus1=node_423775697.3.4 conn=wye kv=0.1270 pf=1 pmpp=0.02 kva=0.10 irradiance=1 temperature=25 %cutin=20 %cutout=20 effcurve=MyEff P-TCurve=MyPvsT Daily=IRRAD_DIA TDaily=TEMP_DIA
New PVSystem.GD_111e3fdef867b8695ff817990dfae3481600e5fc23f7877ba7ed3bafe4741646_1 phases=1 bus1=node_423775697.1.4 conn=wye kv=0.1270 pf=1 pmpp=1.85 kva=1.85 irradiance=1 temperature=25 %cutin=20 %cutout=20 effcurve=MyEff P-TCurve=MyPvsT Daily=IRRAD_DIA TDaily=TEMP_DIA
New PVSystem.GD_111e3fdef867b8695ff817990dfae3481600e5fc23f7877ba7ed3bafe4741646_2 phases=1 bus1=node_423775697.2.4 conn=wye kv=0.1270 pf=1 pmpp=1.85 kva=1.85 irradiance=1 temperature=25 %cutin=20 %cutout=20 effcurve=MyEff P-TCurve=MyPvsT Daily=IRRAD_DIA TDaily=TEMP_DIA
New PVSystem.GD_111e3fdef867b8695ff817990dfae3481600e5fc23f7877ba7ed3bafe4741646_3 phases=1 bus1=node_423775697.3.4 conn=wye kv=0.1270 pf=1 pmpp=1.85 kva=1.85 irradiance=1 temperature=25 %cutin=20 %cutout=20 effcurve=MyEff P-TCurve=MyPvsT Daily=IRRAD_DIA TDaily=TEMP_DIA
New PVSystem.GD_b05eba37f380d3759c09294969fcd1152b1c790cb609b47622462a5a9567ba47_1 phases=1 bus1=node_423758009.1.4 conn=wye kv=0.1270 pf=1 pmpp=1.65 kva=1.65 irradiance=1 temperature=25 %cutin=20 %cutout=20 effcurve=MyEff P-TCurve=MyPvsT Daily=IRRAD_DIA TDaily=TEMP_DIA
New PVSystem.GD_b05eba37f380d3759c09294969fcd1152b1c790cb609b47622462a5a9567ba47_2 phases=1 bus1=node_423758009.2.4 conn=wye kv=0.1270 pf=1 pmpp=1.65 kva=1.65 irradiance=1 temperature=25 %cutin=20 %cutout=20 effcurve=MyEff P-TCurve=MyPvsT Daily=IRRAD_DIA TDaily=TEMP_DIA
New PVSystem.GD_b05eba37f380d3759c09294969fcd1152b1c790cb609b47622462a5a9567ba47_3 phases=1 bus1=node_423758009.3.4 conn=wye kv=0.1270 pf=1 pmpp=1.65 kva=1.65 irradiance=1 temperature=25 %cutin=20 %cutout=20 effcurve=MyEff P-TCurve=MyPvsT Daily=IRRAD_DIA TDaily=TEMP_DIA
New PVSystem.GD_0ea8df544c21a85ce58fcaa75144ebaef8003425aa28dcf1cc80003adaf6b230_1 phases=1 bus1=node_423775418.1.4 conn=wye kv=0.1270 pf=1 pmpp=0.48 kva=0.48 irradiance=1 temperature=25 %cutin=20 %cutout=20 effcurve=MyEff P-TCurve=MyPvsT Daily=IRRAD_DIA TDaily=TEMP_DIA
New PVSystem.GD_0ea8df544c21a85ce58fcaa75144ebaef8003425aa28dcf1cc80003adaf6b230_2 phases=1 bus1=node_423775418.2.4 conn=wye kv=0.1270 pf=1 pmpp=0.48 kva=0.48 irradiance=1 temperature=25 %cutin=20 %cutout=20 effcurve=MyEff P-TCurve=MyPvsT Daily=IRRAD_DIA TDaily=TEMP_DIA
New PVSystem.GD_0ea8df544c21a85ce58fcaa75144ebaef8003425aa28dcf1cc80003adaf6b230_3 phases=1 bus1=node_423775418.3.4 conn=wye kv=0.1270 pf=1 pmpp=0.48 kva=0.48 irradiance=1 temperature=25 %cutin=20 %cutout=20 effcurve=MyEff P-TCurve=MyPvsT Daily=IRRAD_DIA TDaily=TEMP_DIA
New PVSystem.GD_d55f3652ea0ccaa5de279ea074c5c53af5cfcda55548c9808739a9aed5a96673_1 phases=1 bus1=node_423776054.1.4 conn=wye kv=0.1270 pf=1 pmpp=3.60 kva=3.60 irradiance=1 temperature=25 %cutin=20 %cutout=20 effcurve=MyEff P-TCurve=MyPvsT Daily=IRRAD_DIA TDaily=TEMP_DIA
New PVSystem.GD_d55f3652ea0ccaa5de279ea074c5c53af5cfcda55548c9808739a9aed5a96673_2 phases=1 bus1=node_423776054.2.4 conn=wye kv=0.1270 pf=1 pmpp=3.60 kva=3.60 irradiance=1 temperature=25 %cutin=20 %cutout=20 effcurve=MyEff P-TCurve=MyPvsT Daily=IRRAD_DIA TDaily=TEMP_DIA
New PVSystem.GD_d55f3652ea0ccaa5de279ea074c5c53af5cfcda55548c9808739a9aed5a96673_3 phases=1 bus1=node_423776054.3.4 conn=wye kv=0.1270 pf=1 pmpp=3.60 kva=3.60 irradiance=1 temperature=25 %cutin=20 %cutout=20 effcurve=MyEff P-TCurve=MyPvsT Daily=IRRAD_DIA TDaily=TEMP_DIA
...
